-------------------------------------------------------
          Amber 14 SANDER                              2014
          -------------------------------------------------------

  [-O]verwriting output

File Assignments:

 Here is the input file:

constant temperature
 &cntrl
   imin = 0, nstlim = 4000, irest = 1, ntx = 5, dt = 0.002,
   ntt = 1, temp0 = 300.0, tautp = 1.0,
   ntb = 1,
   ntc = 2, ntf = 2,
   ioutfm = 1, iwrap = 1,
   ntwe = 800, ntwx = 800, ntpr = 400,
    ntr = 1, restraint_wt = 10.00,
 restraintmask="!:CYC",
 /

--------------------------------------------------------------------------------
   1.  RESOURCE   USE:
--------------------------------------------------------------------------------

 getting new box info from bottom of inpcrd

 NATOM  =    2486 NTYPES =       3 NBONH =    1657 MBONA  =     828
 NTHETH =    4140 MTHETA =     828 NPHIH =    6624 MPHIA  =    2484
 NHPARM =       0 NPARM  =       0 NNB   =   14630 NRES   =     139
 NBONA  =     828 NTHETA =     828 NPHIA =    2484 NUMBND =       3
 NUMANG =       3 NPTRA  =       5 NATYP =       4 NPHB   =       0
 IFBOX  =       1 NMXRS  =      18 IFCAP =       0 NEXTRA =       0
 NCOPY  =       0

     BOX TYPE: RECTILINEAR

--------------------------------------------------------------------------------
   2.  CONTROL  DATA  FOR  THE  RUN
--------------------------------------------------------------------------------

default_name

General flags:
     imin    =       0, nmropt  =       0

Nature and format of input:
     ntx     =       5, irest   =       1, ntrx    =       1

Nature and format of output:
     ntxo    =       1, ntpr    =     400, ntrx    =       1, ntwr    =     500
     iwrap   =       1, ntwx    =     800, ntwv    =       0, ntwe    =     800
     ioutfm  =       1, ntwprt  =       0, idecomp =       0, rbornstat=      0

Potential function:
     ntf     =       2, ntb     =       1, igb     =       0, nsnb    =      25
     ipol    =       0, gbsa    =       0, iesp    =       0
     dielc   =   1.00000, cut     =   8.00000, intdiel =   1.00000

Frozen or restrained atoms:
     ibelly  =       0, ntr     =       1
     restraint_wt =  10.00000

Molecular dynamics:
     nstlim  =      4000, nscm    =         0, nrespa  =         1
     t       =   0.00000, dt      =   0.00200, vlimit  =  20.00000

Berendsen (weak-coupling) temperature regulation:
     temp0   = 300.00000, tempi   =   0.00000, tautp   =   1.00000

SHAKE:
     ntc     =       2, jfastw  =       0
     tol     =   0.00001

Ewald parameters:
     verbose =       0, ew_type =       0, nbflag  =       1, use_pme =       1
     vdwmeth =       1, eedmeth =       1, netfrc  =       1
     Box X =   34.145   Box Y =   43.729   Box Z =   30.396
     Alpha =   90.000   Beta  =   90.000   Gamma =   90.000
     NFFT1 =   36       NFFT2 =   45       NFFT3 =   30
     Cutoff=    8.000   Tol   =0.100E-04
     Ewald Coefficient =  0.34864
     Interpolation order =    4

    LOADING THE CONSTRAINED ATOMS AS GROUPS

   5.  REFERENCE ATOM COORDINATES

  defa
     Mask !:CYC; matches     2 atoms

--------------------------------------------------------------------------------
   3.  ATOMIC COORDINATES AND VELOCITIES
--------------------------------------------------------------------------------

default_name
 begin time read from input coords =     2.000 ps

 Number of triangulated 3-point waters found:        0

     Sum of charges from parm topology file =   0.00000009
     Forcing neutrality...

--------------------------------------------------------------------------------
   4.  RESULTS
 NSTEP =      400   TIME(PS) =       2.800  TEMP(K) =   214.52  PRESS =     0.0
 Etot   =      1932.5904  EKtot   =      1236.4588  EPtot      =       696.1316
 BOND   =        66.5455  ANGLE   =       256.0073  DIHED      =       464.2660
 1-4 NB =       379.9665  1-4 EEL =      -113.0846  VDWAALS    =      -550.7705
 EELEC  =       193.0204  EHBOND  =         0.0000  RESTRAINT  =         0.1808
 EAMBER (non-restraint)  =       695.9508
 Ewald error estimate:   0.1704E-04
 ------------------------------------------------------------------------------

      A V E R A G E S   O V E R    4000 S T E P S

 NSTEP =     4000   TIME(PS) =      10.000  TEMP(K) =   261.94  PRESS =     0.0
 Etot   =      2649.1053  EKtot   =      1509.8063  EPtot      =      1139.2990
 BOND   =       138.4660  ANGLE   =       558.0975  DIHED      =       496.1339
 1-4 NB =       410.5818  1-4 EEL =      -113.3021  VDWAALS    =      -543.9696
 EELEC  =       193.1370  EHBOND  =         0.0000  RESTRAINT  =         0.1546
 EAMBER (non-restraint)  =      1139.1444
 Ewald error estimate:   0.1499E-03
 ------------------------------------------------------------------------------

      R M S  F L U C T U A T I O N S

 NSTEP =     4000   TIME(PS) =      10.000  TEMP(K) =    33.11  PRESS =     0.0
 Etot   =       447.2683  EKtot   =       190.8345  EPtot      =       262.4057
 BOND   =        45.9260  ANGLE   =       190.9376  DIHED      =        22.0546
 1-4 NB =        14.8667  1-4 EEL =         1.1493  VDWAALS    =        13.6142
 EELEC  =         0.6128  EHBOND  =         0.0000  RESTRAINT  =         0.0796
 EAMBER (non-restraint)  =       262.3261
 Ewald error estimate:   0.9567E-04
 ------------------------------------------------------------------------------
