-------------------------------------------------------
          Amber 14 SANDER                              2014
          -------------------------------------------------------

  [-O]verwriting output

File Assignments:

 Here is the input file:

constant pressure
 &cntrl
   imin = 0, nstlim = 15000, irest = 1, ntx = 5, dt = 0.002,
   ntt = 1, temp0 = 300.0, tautp = 1.0,
   ntp = 1, pres0 = 1.0, taup = 0.5,
   ntb = 2,
   ntc = 2, ntf = 2,
   ioutfm = 1, iwrap = 1,
   ntwe = 3000, ntwx = 3000, ntpr = 1500,
    ntr = 1, restraint_wt = 10.00,
 restraintmask="!:WAT,HOH,T3P,T4P",
 /

--------------------------------------------------------------------------------
   1.  RESOURCE   USE:
--------------------------------------------------------------------------------

 getting new box info from bottom of inpcrd

 NATOM  =    2624 NTYPES =       4 NBONH =    2619 MBONA  =       4
 NTHETH =      24 MTHETA =       6 NPHIH =      36 MPHIA  =       0
 NHPARM =       0 NPARM  =       0 NNB   =    3562 NRES   =     870
 NBONA  =       4 NTHETA =       6 NPHIA =       0 NUMBND =       4
 NUMANG =       3 NPTRA  =       1 NATYP =       4 NPHB   =       1
 IFBOX  =       1 NMXRS  =      17 IFCAP =       0 NEXTRA =       0
 NCOPY  =       0

     BOX TYPE: RECTILINEAR

--------------------------------------------------------------------------------
   2.  CONTROL  DATA  FOR  THE  RUN
--------------------------------------------------------------------------------

LIG

General flags:
     imin    =       0, nmropt  =       0

Nature and format of input:
     ntx     =       5, irest   =       1, ntrx    =       1

Nature and format of output:
     ntxo    =       1, ntpr    =    1500, ntrx    =       1, ntwr    =     500
     iwrap   =       1, ntwx    =    3000, ntwv    =       0, ntwe    =    3000
     ioutfm  =       1, ntwprt  =       0, idecomp =       0, rbornstat=      0

Potential function:
     ntf     =       2, ntb     =       2, igb     =       0, nsnb    =      25
     ipol    =       0, gbsa    =       0, iesp    =       0
     dielc   =   1.00000, cut     =   8.00000, intdiel =   1.00000

Frozen or restrained atoms:
     ibelly  =       0, ntr     =       1
     restraint_wt =  10.00000

Molecular dynamics:
     nstlim  =     15000, nscm    =         0, nrespa  =         1
     t       =   0.00000, dt      =   0.00200, vlimit  =  20.00000

Berendsen (weak-coupling) temperature regulation:
     temp0   = 300.00000, tempi   =   0.00000, tautp   =   1.00000

Pressure regulation:
     ntp     =       1
     pres0   =   1.00000, comp    =  44.60000, taup    =   0.50000

SHAKE:
     ntc     =       2, jfastw  =       0
     tol     =   0.00001

Ewald parameters:
     verbose =       0, ew_type =       0, nbflag  =       1, use_pme =       1
     vdwmeth =       1, eedmeth =       1, netfrc  =       1
     Box X =   33.943   Box Y =   34.260   Box Z =   34.229
     Alpha =   90.000   Beta  =   90.000   Gamma =   90.000
     NFFT1 =   36       NFFT2 =   36       NFFT3 =   36
     Cutoff=    8.000   Tol   =0.100E-04
     Ewald Coefficient =  0.34864
     Interpolation order =    4

    LOADING THE CONSTRAINED ATOMS AS GROUPS

   5.  REFERENCE ATOM COORDINATES

  LIG
     Mask !:WAT,HOH,T3P,T4P; matches    17 atoms

--------------------------------------------------------------------------------
   3.  ATOMIC COORDINATES AND VELOCITIES
--------------------------------------------------------------------------------

LIG
 begin time read from input coords =    10.000 ps

 Number of triangulated 3-point waters found:      869

     Sum of charges from parm topology file =   0.00000500
     Forcing neutrality...

--------------------------------------------------------------------------------
   4.  RESULTS
 NSTEP =     1500   TIME(PS) =      13.000  TEMP(K) =   298.77  PRESS =  -850.9
 Etot   =     -6478.2768  EKtot   =      1559.3987  EPtot      =     -8037.6756
 BOND   =         0.6444  ANGLE   =         2.0250  DIHED      =         0.1320
 1-4 NB =         2.1155  1-4 EEL =        -9.5442  VDWAALS    =      1161.2583
 EELEC  =     -9196.2836  EHBOND  =         0.0000  RESTRAINT  =         1.9771
 EAMBER (non-restraint)  =     -8039.6527
 EKCMT  =       798.3192  VIRIAL  =      1463.9820  VOLUME     =     36234.5568
                                                    Density    =         0.7208
 Ewald error estimate:   0.3468E-03
 ------------------------------------------------------------------------------

      A V E R A G E S   O V E R   15000 S T E P S

 NSTEP =    15000   TIME(PS) =      40.000  TEMP(K) =   299.27  PRESS =  -151.8
 Etot   =     -6649.3475  EKtot   =      1562.0219  EPtot      =     -8211.3694
 BOND   =         0.8378  ANGLE   =         3.1358  DIHED      =         0.1873
 1-4 NB =         2.4886  1-4 EEL =        -9.5946  VDWAALS    =      1222.5623
 EELEC  =     -9434.3341  EHBOND  =         0.0000  RESTRAINT  =         3.3475
 EAMBER (non-restraint)  =     -8214.7169
 EKCMT  =       782.0648  VIRIAL  =       889.2612  VOLUME     =     28913.2881
                                                    Density    =         0.9172
 Ewald error estimate:   0.1815E-03
 ------------------------------------------------------------------------------

      R M S  F L U C T U A T I O N S

 NSTEP =    15000   TIME(PS) =      40.000  TEMP(K) =     5.26  PRESS =   323.9
 Etot   =        98.9205  EKtot   =        27.4558  EPtot      =       110.0596
 BOND   =         0.5675  ANGLE   =         0.9263  DIHED      =         0.0948
 1-4 NB =         0.5750  1-4 EEL =         0.0981  VDWAALS    =        35.7832
 EELEC  =       120.8285  EHBOND  =         0.0000  RESTRAINT  =         1.1831
 EAMBER (non-restraint)  =       108.8766
 EKCMT  =        21.2152  VIRIAL  =       210.0295  VOLUME     =      3878.6143
                                                    Density    =         0.1041
 Ewald error estimate:   0.1400E-03
 ------------------------------------------------------------------------------
