-------------------------------------------------------
          Amber 14 SANDER                              2014
          -------------------------------------------------------

  [-O]verwriting output

File Assignments:

 Here is the input file:

constant pressure
 &cntrl
   imin = 0, nstlim = 15000, irest = 1, ntx = 5, dt = 0.002,
   ntt = 1, temp0 = 300.0, tautp = 1.0,
   ntp = 1, pres0 = 1.0, taup = 0.5,
   ntb = 2,
   ntc = 2, ntf = 2,
   ioutfm = 1, iwrap = 1,
   ntwe = 3000, ntwx = 3000, ntpr = 1500,
    ntr = 1, restraint_wt = 10.00,
 restraintmask="!:WAT,HOH,T3P,T4P",
 /

--------------------------------------------------------------------------------
   1.  RESOURCE   USE:
--------------------------------------------------------------------------------

 getting new box info from bottom of inpcrd

 NATOM  =    2090 NTYPES =       4 NBONH =    2089 MBONA  =       0
 NTHETH =       6 MTHETA =       0 NPHIH =       0 MPHIA  =       0
 NHPARM =       0 NPARM  =       0 NNB   =    2791 NRES   =     696
 NBONA  =       0 NTHETA =       0 NPHIA =       0 NUMBND =       3
 NUMANG =       1 NPTRA  =       0 NATYP =       4 NPHB   =       1
 IFBOX  =       1 NMXRS  =       5 IFCAP =       0 NEXTRA =       0
 NCOPY  =       0

     BOX TYPE: RECTILINEAR

--------------------------------------------------------------------------------
   2.  CONTROL  DATA  FOR  THE  RUN
--------------------------------------------------------------------------------

LIG

General flags:
     imin    =       0, nmropt  =       0

Nature and format of input:
     ntx     =       5, irest   =       1, ntrx    =       1

Nature and format of output:
     ntxo    =       1, ntpr    =    1500, ntrx    =       1, ntwr    =     500
     iwrap   =       1, ntwx    =    3000, ntwv    =       0, ntwe    =    3000
     ioutfm  =       1, ntwprt  =       0, idecomp =       0, rbornstat=      0

Potential function:
     ntf     =       2, ntb     =       2, igb     =       0, nsnb    =      25
     ipol    =       0, gbsa    =       0, iesp    =       0
     dielc   =   1.00000, cut     =   8.00000, intdiel =   1.00000

Frozen or restrained atoms:
     ibelly  =       0, ntr     =       1
     restraint_wt =  10.00000

Molecular dynamics:
     nstlim  =     15000, nscm    =         0, nrespa  =         1
     t       =   0.00000, dt      =   0.00200, vlimit  =  20.00000

Berendsen (weak-coupling) temperature regulation:
     temp0   = 300.00000, tempi   =   0.00000, tautp   =   1.00000

Pressure regulation:
     ntp     =       1
     pres0   =   1.00000, comp    =  44.60000, taup    =   0.50000

SHAKE:
     ntc     =       2, jfastw  =       0
     tol     =   0.00001

Ewald parameters:
     verbose =       0, ew_type =       0, nbflag  =       1, use_pme =       1
     vdwmeth =       1, eedmeth =       1, netfrc  =       1
     Box X =   31.981   Box Y =   31.785   Box Z =   31.349
     Alpha =   90.000   Beta  =   90.000   Gamma =   90.000
     NFFT1 =   32       NFFT2 =   32       NFFT3 =   32
     Cutoff=    8.000   Tol   =0.100E-04
     Ewald Coefficient =  0.34864
     Interpolation order =    4

    LOADING THE CONSTRAINED ATOMS AS GROUPS

   5.  REFERENCE ATOM COORDINATES

  LIG
     Mask !:WAT,HOH,T3P,T4P; matches     5 atoms

--------------------------------------------------------------------------------
   3.  ATOMIC COORDINATES AND VELOCITIES
--------------------------------------------------------------------------------

LIG
 begin time read from input coords =    10.000 ps

 Number of triangulated 3-point waters found:      695

     Sum of charges from parm topology file =   0.00000000
     Forcing neutrality...

--------------------------------------------------------------------------------
   4.  RESULTS
 NSTEP =     1500   TIME(PS) =      13.000  TEMP(K) =   294.89  PRESS =  -910.3
 Etot   =     -5170.5592  EKtot   =      1225.0458  EPtot      =     -6395.6050
 BOND   =         0.0000  ANGLE   =         0.2808  DIHED      =         0.0000
 1-4 NB =         0.0000  1-4 EEL =         0.0000  VDWAALS    =       923.7506
 EELEC  =     -7321.0028  EHBOND  =         0.0000  RESTRAINT  =         1.3664
 EAMBER (non-restraint)  =     -6396.9714
 EKCMT  =       630.0055  VIRIAL  =      1207.4975  VOLUME     =     29380.6927
                                                    Density    =         0.7086
 Ewald error estimate:   0.3066E-03
 ------------------------------------------------------------------------------

      A V E R A G E S   O V E R   15000 S T E P S

 NSTEP =    15000   TIME(PS) =      40.000  TEMP(K) =   299.16  PRESS =  -151.8
 Etot   =     -5317.2632  EKtot   =      1242.7749  EPtot      =     -6560.0381
 BOND   =         0.0000  ANGLE   =         0.4261  DIHED      =         0.0000
 1-4 NB =         0.0000  1-4 EEL =         0.0000  VDWAALS    =       987.2292
 EELEC  =     -7548.8053  EHBOND  =         0.0000  RESTRAINT  =         1.1119
 EAMBER (non-restraint)  =     -6561.1500
 EKCMT  =       624.4569  VIRIAL  =       710.2545  VOLUME     =     23211.3044
                                                    Density    =         0.9114
 Ewald error estimate:   0.2085E-03
 ------------------------------------------------------------------------------

      R M S  F L U C T U A T I O N S

 NSTEP =    15000   TIME(PS) =      40.000  TEMP(K) =     5.52  PRESS =   344.8
 Etot   =        84.6091  EKtot   =        22.9109  EPtot      =        93.3077
 BOND   =         0.0000  ANGLE   =         0.1819  DIHED      =         0.0000
 1-4 NB =         0.0000  1-4 EEL =         0.0000  VDWAALS    =        30.7459
 EELEC  =       101.0270  EHBOND  =         0.0000  RESTRAINT  =         0.5645
 EAMBER (non-restraint)  =        92.7432
 EKCMT  =        18.5384  VIRIAL  =       178.6577  VOLUME     =      3202.1083
                                                    Density    =         0.1056
 Ewald error estimate:   0.1553E-03
 ------------------------------------------------------------------------------
