-------------------------------------------------------
          Amber 14 SANDER                              2014
          -------------------------------------------------------

  [-O]verwriting output

File Assignments:

 Here is the input file:

constant temperature
 &cntrl
   imin = 0, nstlim = 4000, irest = 1, ntx = 5, dt = 0.002,
   ntt = 1, temp0 = 300.0, tautp = 1.0,
   ntb = 1,
   ntc = 2, ntf = 2,
   ioutfm = 1, iwrap = 1,
   ntwe = 800, ntwx = 800, ntpr = 400,
    ntr = 1, restraint_wt = 10.00,
 restraintmask="!:WAT,HOH,T3P,T4P",
 /

--------------------------------------------------------------------------------
   1.  RESOURCE   USE:
--------------------------------------------------------------------------------

 getting new box info from bottom of inpcrd

 NATOM  =    2183 NTYPES =       4 NBONH =    2181 MBONA  =       1
 NTHETH =      12 MTHETA =       0 NPHIH =       9 MPHIA  =       0
 NHPARM =       0 NPARM  =       0 NNB   =    2929 NRES   =     726
 NBONA  =       1 NTHETA =       0 NPHIA =       0 NUMBND =       4
 NUMANG =       2 NPTRA  =       1 NATYP =       4 NPHB   =       1
 IFBOX  =       1 NMXRS  =       8 IFCAP =       0 NEXTRA =       0
 NCOPY  =       0

     BOX TYPE: RECTILINEAR

--------------------------------------------------------------------------------
   2.  CONTROL  DATA  FOR  THE  RUN
--------------------------------------------------------------------------------

LIG

General flags:
     imin    =       0, nmropt  =       0

Nature and format of input:
     ntx     =       5, irest   =       1, ntrx    =       1

Nature and format of output:
     ntxo    =       1, ntpr    =     400, ntrx    =       1, ntwr    =     500
     iwrap   =       1, ntwx    =     800, ntwv    =       0, ntwe    =     800
     ioutfm  =       1, ntwprt  =       0, idecomp =       0, rbornstat=      0

Potential function:
     ntf     =       2, ntb     =       1, igb     =       0, nsnb    =      25
     ipol    =       0, gbsa    =       0, iesp    =       0
     dielc   =   1.00000, cut     =   8.00000, intdiel =   1.00000

Frozen or restrained atoms:
     ibelly  =       0, ntr     =       1
     restraint_wt =  10.00000

Molecular dynamics:
     nstlim  =      4000, nscm    =         0, nrespa  =         1
     t       =   0.00000, dt      =   0.00200, vlimit  =  20.00000

Berendsen (weak-coupling) temperature regulation:
     temp0   = 300.00000, tempi   =   0.00000, tautp   =   1.00000

SHAKE:
     ntc     =       2, jfastw  =       0
     tol     =   0.00001

Ewald parameters:
     verbose =       0, ew_type =       0, nbflag  =       1, use_pme =       1
     vdwmeth =       1, eedmeth =       1, netfrc  =       1
     Box X =   32.265   Box Y =   32.158   Box Z =   31.561
     Alpha =   90.000   Beta  =   90.000   Gamma =   90.000
     NFFT1 =   32       NFFT2 =   32       NFFT3 =   32
     Cutoff=    8.000   Tol   =0.100E-04
     Ewald Coefficient =  0.34864
     Interpolation order =    4

    LOADING THE CONSTRAINED ATOMS AS GROUPS

   5.  REFERENCE ATOM COORDINATES

  LIG
     Mask !:WAT,HOH,T3P,T4P; matches     8 atoms

--------------------------------------------------------------------------------
   3.  ATOMIC COORDINATES AND VELOCITIES
--------------------------------------------------------------------------------

LIG
 begin time read from input coords =     2.000 ps

 Number of triangulated 3-point waters found:      725

     Sum of charges from parm topology file =  -0.00000000
     Forcing neutrality...

--------------------------------------------------------------------------------
   4.  RESULTS
 NSTEP =      400   TIME(PS) =       2.800  TEMP(K) =   208.22  PRESS =     0.0
 Etot   =     -6459.7303  EKtot   =       903.6902  EPtot      =     -7363.4205
 BOND   =         0.0085  ANGLE   =         6.0957  DIHED      =         0.0502
 1-4 NB =         0.1106  1-4 EEL =         0.9291  VDWAALS    =      1285.0002
 EELEC  =     -8656.8392  EHBOND  =         0.0000  RESTRAINT  =         1.2244
 EAMBER (non-restraint)  =     -7364.6449
 Ewald error estimate:   0.1319E-04
 ------------------------------------------------------------------------------

      A V E R A G E S   O V E R    4000 S T E P S

 NSTEP =     4000   TIME(PS) =      10.000  TEMP(K) =   258.51  PRESS =     0.0
 Etot   =     -5825.8590  EKtot   =      1121.9544  EPtot      =     -6947.8134
 BOND   =         0.0782  ANGLE   =         6.8101  DIHED      =         0.1011
 1-4 NB =         0.1032  1-4 EEL =         0.9233  VDWAALS    =      1149.2546
 EELEC  =     -8106.5631  EHBOND  =         0.0000  RESTRAINT  =         1.4791
 EAMBER (non-restraint)  =     -6949.2925
 Ewald error estimate:   0.1639E-03
 ------------------------------------------------------------------------------

      R M S  F L U C T U A T I O N S

 NSTEP =     4000   TIME(PS) =      10.000  TEMP(K) =    31.91  PRESS =     0.0
 Etot   =       388.9604  EKtot   =       138.4920  EPtot      =       252.9036
 BOND   =         0.1036  ANGLE   =         2.9875  DIHED      =         0.0617
 1-4 NB =         0.0396  1-4 EEL =         0.0089  VDWAALS    =       102.2222
 EELEC  =       348.6279  EHBOND  =         0.0000  RESTRAINT  =         0.5908
 EAMBER (non-restraint)  =       252.3127
 Ewald error estimate:   0.1229E-03
 ------------------------------------------------------------------------------
