-------------------------------------------------------
          Amber 14 SANDER                              2014
          -------------------------------------------------------

  [-O]verwriting output

File Assignments:

 Here is the input file:

constant pressure
 &cntrl
   imin = 0, nstlim = 15000, irest = 1, ntx = 5, dt = 0.002,
   ntt = 1, temp0 = 300.0, tautp = 1.0,
   ntp = 1, pres0 = 1.0, taup = 0.5,
   ntb = 2,
   ntc = 2, ntf = 2,
   ioutfm = 1, iwrap = 1,
   ntwe = 3000, ntwx = 3000, ntpr = 1500,
    ntr = 1, restraint_wt = 10.00,
 restraintmask="!:WAT,HOH,T3P,T4P",
 /

--------------------------------------------------------------------------------
   1.  RESOURCE   USE:
--------------------------------------------------------------------------------

 getting new box info from bottom of inpcrd

 NATOM  =    2507 NTYPES =       4 NBONH =    2503 MBONA  =       3
 NTHETH =      21 MTHETA =       3 NPHIH =      27 MPHIA  =       0
 NHPARM =       0 NPARM  =       0 NNB   =    3390 NRES   =     832
 NBONA  =       3 NTHETA =       3 NPHIA =       0 NUMBND =       4
 NUMANG =       3 NPTRA  =       2 NATYP =       4 NPHB   =       1
 IFBOX  =       1 NMXRS  =      14 IFCAP =       0 NEXTRA =       0
 NCOPY  =       0

     BOX TYPE: RECTILINEAR

--------------------------------------------------------------------------------
   2.  CONTROL  DATA  FOR  THE  RUN
--------------------------------------------------------------------------------

LIG

General flags:
     imin    =       0, nmropt  =       0

Nature and format of input:
     ntx     =       5, irest   =       1, ntrx    =       1

Nature and format of output:
     ntxo    =       1, ntpr    =    1500, ntrx    =       1, ntwr    =     500
     iwrap   =       1, ntwx    =    3000, ntwv    =       0, ntwe    =    3000
     ioutfm  =       1, ntwprt  =       0, idecomp =       0, rbornstat=      0

Potential function:
     ntf     =       2, ntb     =       2, igb     =       0, nsnb    =      25
     ipol    =       0, gbsa    =       0, iesp    =       0
     dielc   =   1.00000, cut     =   8.00000, intdiel =   1.00000

Frozen or restrained atoms:
     ibelly  =       0, ntr     =       1
     restraint_wt =  10.00000

Molecular dynamics:
     nstlim  =     15000, nscm    =         0, nrespa  =         1
     t       =   0.00000, dt      =   0.00200, vlimit  =  20.00000

Berendsen (weak-coupling) temperature regulation:
     temp0   = 300.00000, tempi   =   0.00000, tautp   =   1.00000

Pressure regulation:
     ntp     =       1
     pres0   =   1.00000, comp    =  44.60000, taup    =   0.50000

SHAKE:
     ntc     =       2, jfastw  =       0
     tol     =   0.00001

Ewald parameters:
     verbose =       0, ew_type =       0, nbflag  =       1, use_pme =       1
     vdwmeth =       1, eedmeth =       1, netfrc  =       1
     Box X =   33.943   Box Y =   33.314   Box Z =   34.229
     Alpha =   90.000   Beta  =   90.000   Gamma =   90.000
     NFFT1 =   36       NFFT2 =   36       NFFT3 =   36
     Cutoff=    8.000   Tol   =0.100E-04
     Ewald Coefficient =  0.34864
     Interpolation order =    4

    LOADING THE CONSTRAINED ATOMS AS GROUPS

   5.  REFERENCE ATOM COORDINATES

  LIG
     Mask !:WAT,HOH,T3P,T4P; matches    14 atoms

--------------------------------------------------------------------------------
   3.  ATOMIC COORDINATES AND VELOCITIES
--------------------------------------------------------------------------------

LIG
 begin time read from input coords =    10.000 ps

 Number of triangulated 3-point waters found:      831

     Sum of charges from parm topology file =  -0.00000100
     Forcing neutrality...

--------------------------------------------------------------------------------
   4.  RESULTS
 NSTEP =     1500   TIME(PS) =      13.000  TEMP(K) =   300.99  PRESS =  -456.2
 Etot   =     -6196.0301  EKtot   =      1500.7062  EPtot      =     -7696.7362
 BOND   =         0.0619  ANGLE   =         1.8563  DIHED      =         0.0800
 1-4 NB =         1.2035  1-4 EEL =        -3.5383  VDWAALS    =      1177.3908
 EELEC  =     -8878.2122  EHBOND  =         0.0000  RESTRAINT  =         4.4217
 EAMBER (non-restraint)  =     -7701.1579
 EKCMT  =       735.4351  VIRIAL  =      1077.1400  VOLUME     =     34687.8797
                                                    Density    =         0.7195
 Ewald error estimate:   0.2862E-03
 ------------------------------------------------------------------------------

      A V E R A G E S   O V E R   15000 S T E P S

 NSTEP =    15000   TIME(PS) =      40.000  TEMP(K) =   299.15  PRESS =  -154.9
 Etot   =     -6348.6197  EKtot   =      1491.5339  EPtot      =     -7840.1536
 BOND   =         0.5374  ANGLE   =         2.3863  DIHED      =         0.1723
 1-4 NB =         1.2399  1-4 EEL =        -3.5345  VDWAALS    =      1173.8608
 EELEC  =     -9017.2582  EHBOND  =         0.0000  RESTRAINT  =         2.4423
 EAMBER (non-restraint)  =     -7842.5959
 EKCMT  =       746.6922  VIRIAL  =       852.6374  VOLUME     =     27948.0545
                                                    Density    =         0.9072
 Ewald error estimate:   0.1934E-03
 ------------------------------------------------------------------------------

      R M S  F L U C T U A T I O N S

 NSTEP =    15000   TIME(PS) =      40.000  TEMP(K) =     5.17  PRESS =   326.7
 Etot   =        92.5765  EKtot   =        25.7616  EPtot      =       102.4560
 BOND   =         0.4380  ANGLE   =         0.8009  DIHED      =         0.1024
 1-4 NB =         0.2721  1-4 EEL =         0.0451  VDWAALS    =        35.6685
 EELEC  =       113.4549  EHBOND  =         0.0000  RESTRAINT  =         0.8349
 EAMBER (non-restraint)  =       101.6210
 EKCMT  =        20.0365  VIRIAL  =       207.2901  VOLUME     =      3796.1905
                                                    Density    =         0.1053
 Ewald error estimate:   0.1441E-03
 ------------------------------------------------------------------------------
