-------------------------------------------------------
          Amber 14 SANDER                              2014
          -------------------------------------------------------

  [-O]verwriting output

File Assignments:

 Here is the input file:

constant pressure
 &cntrl
   imin = 0, nstlim = 15000, irest = 1, ntx = 5, dt = 0.002,
   ntt = 1, temp0 = 300.0, tautp = 1.0,
   ntp = 1, pres0 = 1.0, taup = 0.5,
   ntb = 2,
   ntc = 2, ntf = 2,
   ioutfm = 1, iwrap = 1,
   ntwe = 3000, ntwx = 3000, ntpr = 1500,
    ntr = 1, restraint_wt = 10.00,
 restraintmask="!:WAT,HOH,T3P,T4P",
 /

--------------------------------------------------------------------------------
   1.  RESOURCE   USE:
--------------------------------------------------------------------------------

 getting new box info from bottom of inpcrd

 NATOM  =    2183 NTYPES =       4 NBONH =    2181 MBONA  =       1
 NTHETH =      12 MTHETA =       0 NPHIH =       9 MPHIA  =       0
 NHPARM =       0 NPARM  =       0 NNB   =    2929 NRES   =     726
 NBONA  =       1 NTHETA =       0 NPHIA =       0 NUMBND =       4
 NUMANG =       2 NPTRA  =       1 NATYP =       4 NPHB   =       1
 IFBOX  =       1 NMXRS  =       8 IFCAP =       0 NEXTRA =       0
 NCOPY  =       0

     BOX TYPE: RECTILINEAR

--------------------------------------------------------------------------------
   2.  CONTROL  DATA  FOR  THE  RUN
--------------------------------------------------------------------------------

LIG

General flags:
     imin    =       0, nmropt  =       0

Nature and format of input:
     ntx     =       5, irest   =       1, ntrx    =       1

Nature and format of output:
     ntxo    =       1, ntpr    =    1500, ntrx    =       1, ntwr    =     500
     iwrap   =       1, ntwx    =    3000, ntwv    =       0, ntwe    =    3000
     ioutfm  =       1, ntwprt  =       0, idecomp =       0, rbornstat=      0

Potential function:
     ntf     =       2, ntb     =       2, igb     =       0, nsnb    =      25
     ipol    =       0, gbsa    =       0, iesp    =       0
     dielc   =   1.00000, cut     =   8.00000, intdiel =   1.00000

Frozen or restrained atoms:
     ibelly  =       0, ntr     =       1
     restraint_wt =  10.00000

Molecular dynamics:
     nstlim  =     15000, nscm    =         0, nrespa  =         1
     t       =   0.00000, dt      =   0.00200, vlimit  =  20.00000

Berendsen (weak-coupling) temperature regulation:
     temp0   = 300.00000, tempi   =   0.00000, tautp   =   1.00000

Pressure regulation:
     ntp     =       1
     pres0   =   1.00000, comp    =  44.60000, taup    =   0.50000

SHAKE:
     ntc     =       2, jfastw  =       0
     tol     =   0.00001

Ewald parameters:
     verbose =       0, ew_type =       0, nbflag  =       1, use_pme =       1
     vdwmeth =       1, eedmeth =       1, netfrc  =       1
     Box X =   32.265   Box Y =   32.158   Box Z =   31.561
     Alpha =   90.000   Beta  =   90.000   Gamma =   90.000
     NFFT1 =   32       NFFT2 =   32       NFFT3 =   32
     Cutoff=    8.000   Tol   =0.100E-04
     Ewald Coefficient =  0.34864
     Interpolation order =    4

    LOADING THE CONSTRAINED ATOMS AS GROUPS

   5.  REFERENCE ATOM COORDINATES

  LIG
     Mask !:WAT,HOH,T3P,T4P; matches     8 atoms

--------------------------------------------------------------------------------
   3.  ATOMIC COORDINATES AND VELOCITIES
--------------------------------------------------------------------------------

LIG
 begin time read from input coords =    10.000 ps

 Number of triangulated 3-point waters found:      725

     Sum of charges from parm topology file =  -0.00000000
     Forcing neutrality...

--------------------------------------------------------------------------------
   4.  RESULTS
 NSTEP =     1500   TIME(PS) =      13.000  TEMP(K) =   300.05  PRESS =  -504.4
 Etot   =     -5411.3459  EKtot   =      1302.2050  EPtot      =     -6713.5509
 BOND   =         0.0912  ANGLE   =         6.8838  DIHED      =         0.1222
 1-4 NB =         0.0896  1-4 EEL =         0.9217  VDWAALS    =      1000.9258
 EELEC  =     -7725.2983  EHBOND  =         0.0000  RESTRAINT  =         2.7131
 EAMBER (non-restraint)  =     -6716.2640
 EKCMT  =       635.0693  VIRIAL  =       959.0090  VOLUME     =     29744.5427
                                                    Density    =         0.7309
 Ewald error estimate:   0.3630E-03
 ------------------------------------------------------------------------------

      A V E R A G E S   O V E R   15000 S T E P S

 NSTEP =    15000   TIME(PS) =      40.000  TEMP(K) =   299.40  PRESS =  -146.4
 Etot   =     -5541.5015  EKtot   =      1299.4215  EPtot      =     -6840.9229
 BOND   =         0.2267  ANGLE   =         6.9663  DIHED      =         0.1924
 1-4 NB =         0.1464  1-4 EEL =         0.9241  VDWAALS    =      1026.8438
 EELEC  =     -7879.5801  EHBOND  =         0.0000  RESTRAINT  =         3.3574
 EAMBER (non-restraint)  =     -6844.2804
 EKCMT  =       647.9902  VIRIAL  =       733.5932  VOLUME     =     24155.0668
                                                    Density    =         0.9134
 Ewald error estimate:   0.2025E-03
 ------------------------------------------------------------------------------

      R M S  F L U C T U A T I O N S

 NSTEP =    15000   TIME(PS) =      40.000  TEMP(K) =     5.53  PRESS =   352.3
 Etot   =        87.2772  EKtot   =        23.9990  EPtot      =        96.3568
 BOND   =         0.3196  ANGLE   =         2.4063  DIHED      =         0.1326
 1-4 NB =         0.0863  1-4 EEL =         0.0138  VDWAALS    =        34.1323
 EELEC  =       106.6506  EHBOND  =         0.0000  RESTRAINT  =         1.3569
 EAMBER (non-restraint)  =        95.0000
 EKCMT  =        17.7747  VIRIAL  =       188.8998  VOLUME     =      3161.8083
                                                    Density    =         0.1028
 Ewald error estimate:   0.1560E-03
 ------------------------------------------------------------------------------
