-------------------------------------------------------
          Amber 14 SANDER                              2014
          -------------------------------------------------------

  [-O]verwriting output

File Assignments:

 Here is the input file:

constant temperature
 &cntrl
   imin = 0, nstlim = 4000, irest = 1, ntx = 5, dt = 0.002,
   ntt = 1, temp0 = 300.0, tautp = 1.0,
   ntb = 1,
   ntc = 2, ntf = 2,
   ioutfm = 1, iwrap = 1,
   ntwe = 800, ntwx = 800, ntpr = 400,
    ntr = 1, restraint_wt = 10.00,
 restraintmask="!:WAT,HOH,T3P,T4P",
 /

--------------------------------------------------------------------------------
   1.  RESOURCE   USE:
--------------------------------------------------------------------------------

 getting new box info from bottom of inpcrd

 NATOM  =    2532 NTYPES =       8 NBONH =    2526 MBONA  =       6
 NTHETH =      12 MTHETA =       7 NPHIH =      18 MPHIA  =       8
 NHPARM =       0 NPARM  =       0 NNB   =    3410 NRES   =     841
 NBONA  =       6 NTHETA =       7 NPHIA =       8 NUMBND =       9
 NUMANG =      11 NPTRA  =       4 NATYP =       9 NPHB   =       1
 IFBOX  =       1 NMXRS  =      12 IFCAP =       0 NEXTRA =       0
 NCOPY  =       0

     BOX TYPE: RECTILINEAR

--------------------------------------------------------------------------------
   2.  CONTROL  DATA  FOR  THE  RUN
--------------------------------------------------------------------------------

LIG

General flags:
     imin    =       0, nmropt  =       0

Nature and format of input:
     ntx     =       5, irest   =       1, ntrx    =       1

Nature and format of output:
     ntxo    =       1, ntpr    =     400, ntrx    =       1, ntwr    =     500
     iwrap   =       1, ntwx    =     800, ntwv    =       0, ntwe    =     800
     ioutfm  =       1, ntwprt  =       0, idecomp =       0, rbornstat=      0

Potential function:
     ntf     =       2, ntb     =       1, igb     =       0, nsnb    =      25
     ipol    =       0, gbsa    =       0, iesp    =       0
     dielc   =   1.00000, cut     =   8.00000, intdiel =   1.00000

Frozen or restrained atoms:
     ibelly  =       0, ntr     =       1
     restraint_wt =  10.00000

Molecular dynamics:
     nstlim  =      4000, nscm    =         0, nrespa  =         1
     t       =   0.00000, dt      =   0.00200, vlimit  =  20.00000

Berendsen (weak-coupling) temperature regulation:
     temp0   = 300.00000, tempi   =   0.00000, tautp   =   1.00000

SHAKE:
     ntc     =       2, jfastw  =       0
     tol     =   0.00001

Ewald parameters:
     verbose =       0, ew_type =       0, nbflag  =       1, use_pme =       1
     vdwmeth =       1, eedmeth =       1, netfrc  =       1
     Box X =   34.986   Box Y =   33.542   Box Z =   31.349
     Alpha =   90.000   Beta  =   90.000   Gamma =   90.000
     NFFT1 =   36       NFFT2 =   36       NFFT3 =   32
     Cutoff=    8.000   Tol   =0.100E-04
     Ewald Coefficient =  0.34864
     Interpolation order =    4

    LOADING THE CONSTRAINED ATOMS AS GROUPS

   5.  REFERENCE ATOM COORDINATES

  LIG
     Mask !:WAT,HOH,T3P,T4P; matches    12 atoms

--------------------------------------------------------------------------------
   3.  ATOMIC COORDINATES AND VELOCITIES
--------------------------------------------------------------------------------

LIG
 begin time read from input coords =     2.000 ps

 Number of triangulated 3-point waters found:      840

     Sum of charges from parm topology file =  -0.00000500
     Forcing neutrality...

--------------------------------------------------------------------------------
   4.  RESULTS
 NSTEP =      400   TIME(PS) =       2.800  TEMP(K) =   208.29  PRESS =     0.0
 Etot   =     -7498.8330  EKtot   =      1049.2436  EPtot      =     -8548.0766
 BOND   =         0.7535  ANGLE   =        10.1366  DIHED      =         0.2001
 1-4 NB =        -0.1749  1-4 EEL =       -11.1246  VDWAALS    =      1456.8308
 EELEC  =    -10006.5988  EHBOND  =         0.0000  RESTRAINT  =         1.9008
 EAMBER (non-restraint)  =     -8549.9774
 Ewald error estimate:   0.4296E-03
 ------------------------------------------------------------------------------

      A V E R A G E S   O V E R    4000 S T E P S

 NSTEP =     4000   TIME(PS) =      10.000  TEMP(K) =   257.83  PRESS =     0.0
 Etot   =     -6762.8592  EKtot   =      1298.8090  EPtot      =     -8061.6682
 BOND   =         0.8982  ANGLE   =        10.4316  DIHED      =         0.9508
 1-4 NB =        -0.0758  1-4 EEL =       -11.4429  VDWAALS    =      1311.9423
 EELEC  =     -9376.8394  EHBOND  =         0.0000  RESTRAINT  =         2.4668
 EAMBER (non-restraint)  =     -8064.1351
 Ewald error estimate:   0.1619E-03
 ------------------------------------------------------------------------------

      R M S  F L U C T U A T I O N S

 NSTEP =     4000   TIME(PS) =      10.000  TEMP(K) =    32.45  PRESS =     0.0
 Etot   =       451.5494  EKtot   =       163.4432  EPtot      =       290.7446
 BOND   =         0.4364  ANGLE   =         0.7301  DIHED      =         0.5231
 1-4 NB =         0.0898  1-4 EEL =         0.1926  VDWAALS    =       123.1735
 EELEC  =       408.1867  EHBOND  =         0.0000  RESTRAINT  =         1.0155
 EAMBER (non-restraint)  =       289.7292
 Ewald error estimate:   0.1212E-03
 ------------------------------------------------------------------------------
