-------------------------------------------------------
          Amber 14 SANDER                              2014
          -------------------------------------------------------

  [-O]verwriting output

File Assignments:

 Here is the input file:

constant pressure
 &cntrl
   imin = 0, nstlim = 15000, irest = 1, ntx = 5, dt = 0.002,
   ntt = 1, temp0 = 300.0, tautp = 1.0,
   ntp = 1, pres0 = 1.0, taup = 0.5,
   ntb = 2,
   ntc = 2, ntf = 2,
   ioutfm = 1, iwrap = 1,
   ntwe = 3000, ntwx = 3000, ntpr = 1500,
    ntr = 1, restraint_wt = 10.00,
 restraintmask="!:WAT,HOH,T3P,T4P",
 /

--------------------------------------------------------------------------------
   1.  RESOURCE   USE:
--------------------------------------------------------------------------------

 getting new box info from bottom of inpcrd

 NATOM  =    2532 NTYPES =       8 NBONH =    2526 MBONA  =       6
 NTHETH =      12 MTHETA =       7 NPHIH =      18 MPHIA  =       8
 NHPARM =       0 NPARM  =       0 NNB   =    3410 NRES   =     841
 NBONA  =       6 NTHETA =       7 NPHIA =       8 NUMBND =       9
 NUMANG =      11 NPTRA  =       4 NATYP =       9 NPHB   =       1
 IFBOX  =       1 NMXRS  =      12 IFCAP =       0 NEXTRA =       0
 NCOPY  =       0

     BOX TYPE: RECTILINEAR

--------------------------------------------------------------------------------
   2.  CONTROL  DATA  FOR  THE  RUN
--------------------------------------------------------------------------------

LIG

General flags:
     imin    =       0, nmropt  =       0

Nature and format of input:
     ntx     =       5, irest   =       1, ntrx    =       1

Nature and format of output:
     ntxo    =       1, ntpr    =    1500, ntrx    =       1, ntwr    =     500
     iwrap   =       1, ntwx    =    3000, ntwv    =       0, ntwe    =    3000
     ioutfm  =       1, ntwprt  =       0, idecomp =       0, rbornstat=      0

Potential function:
     ntf     =       2, ntb     =       2, igb     =       0, nsnb    =      25
     ipol    =       0, gbsa    =       0, iesp    =       0
     dielc   =   1.00000, cut     =   8.00000, intdiel =   1.00000

Frozen or restrained atoms:
     ibelly  =       0, ntr     =       1
     restraint_wt =  10.00000

Molecular dynamics:
     nstlim  =     15000, nscm    =         0, nrespa  =         1
     t       =   0.00000, dt      =   0.00200, vlimit  =  20.00000

Berendsen (weak-coupling) temperature regulation:
     temp0   = 300.00000, tempi   =   0.00000, tautp   =   1.00000

Pressure regulation:
     ntp     =       1
     pres0   =   1.00000, comp    =  44.60000, taup    =   0.50000

SHAKE:
     ntc     =       2, jfastw  =       0
     tol     =   0.00001

Ewald parameters:
     verbose =       0, ew_type =       0, nbflag  =       1, use_pme =       1
     vdwmeth =       1, eedmeth =       1, netfrc  =       1
     Box X =   34.986   Box Y =   33.542   Box Z =   31.349
     Alpha =   90.000   Beta  =   90.000   Gamma =   90.000
     NFFT1 =   36       NFFT2 =   36       NFFT3 =   32
     Cutoff=    8.000   Tol   =0.100E-04
     Ewald Coefficient =  0.34864
     Interpolation order =    4

    LOADING THE CONSTRAINED ATOMS AS GROUPS

   5.  REFERENCE ATOM COORDINATES

  LIG
     Mask !:WAT,HOH,T3P,T4P; matches    12 atoms

--------------------------------------------------------------------------------
   3.  ATOMIC COORDINATES AND VELOCITIES
--------------------------------------------------------------------------------

LIG
 begin time read from input coords =    10.000 ps

 Number of triangulated 3-point waters found:      840

     Sum of charges from parm topology file =  -0.00000500
     Forcing neutrality...

--------------------------------------------------------------------------------
   4.  RESULTS
 NSTEP =     1500   TIME(PS) =      13.000  TEMP(K) =   295.75  PRESS =  -773.0
 Etot   =     -6263.2469  EKtot   =      1489.8599  EPtot      =     -7753.1068
 BOND   =         1.8479  ANGLE   =        10.7779  DIHED      =         1.2526
 1-4 NB =        -0.1402  1-4 EEL =       -11.0522  VDWAALS    =      1134.7633
 EELEC  =     -8894.0459  EHBOND  =         0.0000  RESTRAINT  =         3.4898
 EAMBER (non-restraint)  =     -7756.5967
 EKCMT  =       757.5143  VIRIAL  =      1310.3790  VOLUME     =     33125.6843
                                                    Density    =         0.7627
 Ewald error estimate:   0.1056E-03
 ------------------------------------------------------------------------------

      A V E R A G E S   O V E R   15000 S T E P S

 NSTEP =    15000   TIME(PS) =      40.000  TEMP(K) =   299.50  PRESS =  -131.1
 Etot   =     -6437.3054  EKtot   =      1508.7375  EPtot      =     -7946.0429
 BOND   =         1.6969  ANGLE   =        11.1864  DIHED      =         1.6108
 1-4 NB =        -0.0250  1-4 EEL =       -11.4158  VDWAALS    =      1187.8288
 EELEC  =     -9140.0285  EHBOND  =         0.0000  RESTRAINT  =         3.1035
 EAMBER (non-restraint)  =     -7949.1464
 EKCMT  =       753.7973  VIRIAL  =       841.5991  VOLUME     =     27350.3478
                                                    Density    =         0.9338
 Ewald error estimate:   0.1777E-03
 ------------------------------------------------------------------------------

      R M S  F L U C T U A T I O N S

 NSTEP =    15000   TIME(PS) =      40.000  TEMP(K) =     5.10  PRESS =   340.6
 Etot   =        92.3551  EKtot   =        25.7119  EPtot      =       102.1392
 BOND   =         0.9137  ANGLE   =         1.1927  DIHED      =         0.8067
 1-4 NB =         0.1206  1-4 EEL =         0.1870  VDWAALS    =        34.0811
 EELEC  =       109.7175  EHBOND  =         0.0000  RESTRAINT  =         1.1358
 EAMBER (non-restraint)  =       101.0034
 EKCMT  =        19.6973  VIRIAL  =       210.7274  VOLUME     =      3090.8438
                                                    Density    =         0.0886
 Ewald error estimate:   0.1332E-03
 ------------------------------------------------------------------------------
