-------------------------------------------------------
          Amber 14 SANDER                              2014
          -------------------------------------------------------

  [-O]verwriting output

File Assignments:

 Here is the input file:

constant temperature
 &cntrl
   imin = 0, nstlim = 4000, irest = 1, ntx = 5, dt = 0.002,
   ntt = 1, temp0 = 300.0, tautp = 1.0,
   ntb = 1,
   ntc = 2, ntf = 2,
   ioutfm = 1, iwrap = 1,
   ntwe = 800, ntwx = 800, ntpr = 400,
    ntr = 1, restraint_wt = 10.00,
 restraintmask="!:CYC",
 /

--------------------------------------------------------------------------------
   1.  RESOURCE   USE:
--------------------------------------------------------------------------------

 getting new box info from bottom of inpcrd

 NATOM  =    3746 NTYPES =       2 NBONH =    2497 MBONA  =    1248
 NTHETH =    6240 MTHETA =    1248 NPHIH =    9984 MPHIA  =    3744
 NHPARM =       0 NPARM  =       0 NNB   =   22050 NRES   =     209
 NBONA  =    1248 NTHETA =    1248 NPHIA =    3744 NUMBND =       3
 NUMANG =       3 NPTRA  =       5 NATYP =       4 NPHB   =       0
 IFBOX  =       1 NMXRS  =      18 IFCAP =       0 NEXTRA =       0
 NCOPY  =       0

     BOX TYPE: RECTILINEAR

--------------------------------------------------------------------------------
   2.  CONTROL  DATA  FOR  THE  RUN
--------------------------------------------------------------------------------

default_name

General flags:
     imin    =       0, nmropt  =       0

Nature and format of input:
     ntx     =       5, irest   =       1, ntrx    =       1

Nature and format of output:
     ntxo    =       1, ntpr    =     400, ntrx    =       1, ntwr    =     500
     iwrap   =       1, ntwx    =     800, ntwv    =       0, ntwe    =     800
     ioutfm  =       1, ntwprt  =       0, idecomp =       0, rbornstat=      0

Potential function:
     ntf     =       2, ntb     =       1, igb     =       0, nsnb    =      25
     ipol    =       0, gbsa    =       0, iesp    =       0
     dielc   =   1.00000, cut     =   8.00000, intdiel =   1.00000

Frozen or restrained atoms:
     ibelly  =       0, ntr     =       1
     restraint_wt =  10.00000

Molecular dynamics:
     nstlim  =      4000, nscm    =         0, nrespa  =         1
     t       =   0.00000, dt      =   0.00200, vlimit  =  20.00000

Berendsen (weak-coupling) temperature regulation:
     temp0   = 300.00000, tempi   =   0.00000, tautp   =   1.00000

SHAKE:
     ntc     =       2, jfastw  =       0
     tol     =   0.00001

Ewald parameters:
     verbose =       0, ew_type =       0, nbflag  =       1, use_pme =       1
     vdwmeth =       1, eedmeth =       1, netfrc  =       1
     Box X =   34.145   Box Y =   43.729   Box Z =   45.594
     Alpha =   90.000   Beta  =   90.000   Gamma =   90.000
     NFFT1 =   36       NFFT2 =   45       NFFT3 =   45
     Cutoff=    8.000   Tol   =0.100E-04
     Ewald Coefficient =  0.34864
     Interpolation order =    4

    LOADING THE CONSTRAINED ATOMS AS GROUPS

   5.  REFERENCE ATOM COORDINATES

  defa
     Mask !:CYC; matches     2 atoms

--------------------------------------------------------------------------------
   3.  ATOMIC COORDINATES AND VELOCITIES
--------------------------------------------------------------------------------

default_name
 begin time read from input coords =     2.000 ps

 Number of triangulated 3-point waters found:        0

     Sum of charges from parm topology file =   0.00000014
     Forcing neutrality...

--------------------------------------------------------------------------------
   4.  RESULTS
 NSTEP =      400   TIME(PS) =       2.800  TEMP(K) =   209.12  PRESS =     0.0
 Etot   =      2898.6290  EKtot   =      1816.2231  EPtot      =      1082.4059
 BOND   =        94.6800  ANGLE   =       401.2665  DIHED      =       695.2727
 1-4 NB =       580.4292  1-4 EEL =      -171.4749  VDWAALS    =      -809.3815
 EELEC  =       291.5527  EHBOND  =         0.0000  RESTRAINT  =         0.0611
 EAMBER (non-restraint)  =      1082.3448
 Ewald error estimate:   0.4732E-04
 ------------------------------------------------------------------------------

      A V E R A G E S   O V E R    4000 S T E P S

 NSTEP =     4000   TIME(PS) =      10.000  TEMP(K) =   262.24  PRESS =     0.0
 Etot   =      3968.6428  EKtot   =      2277.5726  EPtot      =      1691.0702
 BOND   =       203.5922  ANGLE   =       825.3980  DIHED      =       745.7863
 1-4 NB =       617.7636  1-4 EEL =      -170.8626  VDWAALS    =      -823.0696
 EELEC  =       291.1686  EHBOND  =         0.0000  RESTRAINT  =         1.2937
 EAMBER (non-restraint)  =      1689.7766
 Ewald error estimate:   0.1383E-03
 ------------------------------------------------------------------------------

      R M S  F L U C T U A T I O N S

 NSTEP =     4000   TIME(PS) =      10.000  TEMP(K) =    32.24  PRESS =     0.0
 Etot   =       664.7098  EKtot   =       279.9664  EPtot      =       392.9521
 BOND   =        68.4736  ANGLE   =       282.5251  DIHED      =        32.1828
 1-4 NB =        21.5690  1-4 EEL =         1.3232  VDWAALS    =        19.5607
 EELEC  =         0.6969  EHBOND  =         0.0000  RESTRAINT  =         1.0322
 EAMBER (non-restraint)  =       391.9198
 Ewald error estimate:   0.8584E-04
 ------------------------------------------------------------------------------
