-------------------------------------------------------
          Amber 14 SANDER                              2014
          -------------------------------------------------------

  [-O]verwriting output

File Assignments:

 Here is the input file:

constant temperature
 &cntrl
   imin = 0, nstlim = 4000, irest = 1, ntx = 5, dt = 0.002,
   ntt = 1, temp0 = 300.0, tautp = 1.0,
   ntb = 1,
   ntc = 2, ntf = 2,
   ioutfm = 1, iwrap = 1,
   ntwe = 800, ntwx = 800, ntpr = 400,
    ntr = 1, restraint_wt = 10.00,
 restraintmask="!:WAT,HOH,T3P,T4P",
 /

--------------------------------------------------------------------------------
   1.  RESOURCE   USE:
--------------------------------------------------------------------------------

 getting new box info from bottom of inpcrd

 NATOM  =    2408 NTYPES =       4 NBONH =    2405 MBONA  =       2
 NTHETH =      17 MTHETA =       1 NPHIH =      18 MPHIA  =       0
 NHPARM =       0 NPARM  =       0 NNB   =    3243 NRES   =     800
 NBONA  =       2 NTHETA =       1 NPHIA =       0 NUMBND =       4
 NUMANG =       3 NPTRA  =       2 NATYP =       4 NPHB   =       1
 IFBOX  =       1 NMXRS  =      11 IFCAP =       0 NEXTRA =       0
 NCOPY  =       0

     BOX TYPE: RECTILINEAR

--------------------------------------------------------------------------------
   2.  CONTROL  DATA  FOR  THE  RUN
--------------------------------------------------------------------------------

LIG

General flags:
     imin    =       0, nmropt  =       0

Nature and format of input:
     ntx     =       5, irest   =       1, ntrx    =       1

Nature and format of output:
     ntxo    =       1, ntpr    =     400, ntrx    =       1, ntwr    =     500
     iwrap   =       1, ntwx    =     800, ntwv    =       0, ntwe    =     800
     ioutfm  =       1, ntwprt  =       0, idecomp =       0, rbornstat=      0

Potential function:
     ntf     =       2, ntb     =       1, igb     =       0, nsnb    =      25
     ipol    =       0, gbsa    =       0, iesp    =       0
     dielc   =   1.00000, cut     =   8.00000, intdiel =   1.00000

Frozen or restrained atoms:
     ibelly  =       0, ntr     =       1
     restraint_wt =  10.00000

Molecular dynamics:
     nstlim  =      4000, nscm    =         0, nrespa  =         1
     t       =   0.00000, dt      =   0.00200, vlimit  =  20.00000

Berendsen (weak-coupling) temperature regulation:
     temp0   = 300.00000, tempi   =   0.00000, tautp   =   1.00000

SHAKE:
     ntc     =       2, jfastw  =       0
     tol     =   0.00001

Ewald parameters:
     verbose =       0, ew_type =       0, nbflag  =       1, use_pme =       1
     vdwmeth =       1, eedmeth =       1, netfrc  =       1
     Box X =   33.943   Box Y =   33.314   Box Z =   32.993
     Alpha =   90.000   Beta  =   90.000   Gamma =   90.000
     NFFT1 =   36       NFFT2 =   36       NFFT3 =   32
     Cutoff=    8.000   Tol   =0.100E-04
     Ewald Coefficient =  0.34864
     Interpolation order =    4

    LOADING THE CONSTRAINED ATOMS AS GROUPS

   5.  REFERENCE ATOM COORDINATES

  LIG
     Mask !:WAT,HOH,T3P,T4P; matches    11 atoms

--------------------------------------------------------------------------------
   3.  ATOMIC COORDINATES AND VELOCITIES
--------------------------------------------------------------------------------

LIG
 begin time read from input coords =     2.000 ps

 Number of triangulated 3-point waters found:      799

     Sum of charges from parm topology file =   0.00000200
     Forcing neutrality...

--------------------------------------------------------------------------------
   4.  RESULTS
 NSTEP =      400   TIME(PS) =       2.800  TEMP(K) =   203.25  PRESS =     0.0
 Etot   =     -7074.7191  EKtot   =       973.2077  EPtot      =     -8047.9269
 BOND   =         0.0205  ANGLE   =         0.4267  DIHED      =         0.0208
 1-4 NB =         0.4556  1-4 EEL =        -0.2004  VDWAALS    =      1433.2276
 EELEC  =     -9482.2822  EHBOND  =         0.0000  RESTRAINT  =         0.4045
 EAMBER (non-restraint)  =     -8048.3314
 Ewald error estimate:   0.3294E-03
 ------------------------------------------------------------------------------

      A V E R A G E S   O V E R    4000 S T E P S

 NSTEP =     4000   TIME(PS) =      10.000  TEMP(K) =   257.98  PRESS =     0.0
 Etot   =     -6370.6154  EKtot   =      1235.2428  EPtot      =     -7605.8582
 BOND   =         0.0774  ANGLE   =         0.8413  DIHED      =         0.0387
 1-4 NB =         0.4450  1-4 EEL =        -0.1945  VDWAALS    =      1244.5348
 EELEC  =     -8852.7572  EHBOND  =         0.0000  RESTRAINT  =         1.1563
 EAMBER (non-restraint)  =     -7607.0145
 Ewald error estimate:   0.1666E-03
 ------------------------------------------------------------------------------

      R M S  F L U C T U A T I O N S

 NSTEP =     4000   TIME(PS) =      10.000  TEMP(K) =    33.20  PRESS =     0.0
 Etot   =       432.7984  EKtot   =       158.9569  EPtot      =       276.0465
 BOND   =         0.0721  ANGLE   =         0.2792  DIHED      =         0.0248
 1-4 NB =         0.0962  1-4 EEL =         0.0182  VDWAALS    =       116.2004
 EELEC  =       386.9050  EHBOND  =         0.0000  RESTRAINT  =         0.6347
 EAMBER (non-restraint)  =       275.4118
 Ewald error estimate:   0.1265E-03
 ------------------------------------------------------------------------------
