-------------------------------------------------------
          Amber 14 SANDER                              2014
          -------------------------------------------------------

  [-O]verwriting output

File Assignments:

 Here is the input file:

constant pressure
 &cntrl
   imin = 0, nstlim = 15000, irest = 1, ntx = 5, dt = 0.002,
   ntt = 1, temp0 = 300.0, tautp = 1.0,
   ntp = 1, pres0 = 1.0, taup = 0.5,
   ntb = 2,
   ntc = 2, ntf = 2,
   ioutfm = 1, iwrap = 1,
   ntwe = 3000, ntwx = 3000, ntpr = 1500,
    ntr = 1, restraint_wt = 10.00,
 restraintmask="!:WAT,HOH,T3P,T4P",
 /

--------------------------------------------------------------------------------
   1.  RESOURCE   USE:
--------------------------------------------------------------------------------

 getting new box info from bottom of inpcrd

 NATOM  =    2408 NTYPES =       4 NBONH =    2405 MBONA  =       2
 NTHETH =      17 MTHETA =       1 NPHIH =      18 MPHIA  =       0
 NHPARM =       0 NPARM  =       0 NNB   =    3243 NRES   =     800
 NBONA  =       2 NTHETA =       1 NPHIA =       0 NUMBND =       4
 NUMANG =       3 NPTRA  =       2 NATYP =       4 NPHB   =       1
 IFBOX  =       1 NMXRS  =      11 IFCAP =       0 NEXTRA =       0
 NCOPY  =       0

     BOX TYPE: RECTILINEAR

--------------------------------------------------------------------------------
   2.  CONTROL  DATA  FOR  THE  RUN
--------------------------------------------------------------------------------

LIG

General flags:
     imin    =       0, nmropt  =       0

Nature and format of input:
     ntx     =       5, irest   =       1, ntrx    =       1

Nature and format of output:
     ntxo    =       1, ntpr    =    1500, ntrx    =       1, ntwr    =     500
     iwrap   =       1, ntwx    =    3000, ntwv    =       0, ntwe    =    3000
     ioutfm  =       1, ntwprt  =       0, idecomp =       0, rbornstat=      0

Potential function:
     ntf     =       2, ntb     =       2, igb     =       0, nsnb    =      25
     ipol    =       0, gbsa    =       0, iesp    =       0
     dielc   =   1.00000, cut     =   8.00000, intdiel =   1.00000

Frozen or restrained atoms:
     ibelly  =       0, ntr     =       1
     restraint_wt =  10.00000

Molecular dynamics:
     nstlim  =     15000, nscm    =         0, nrespa  =         1
     t       =   0.00000, dt      =   0.00200, vlimit  =  20.00000

Berendsen (weak-coupling) temperature regulation:
     temp0   = 300.00000, tempi   =   0.00000, tautp   =   1.00000

Pressure regulation:
     ntp     =       1
     pres0   =   1.00000, comp    =  44.60000, taup    =   0.50000

SHAKE:
     ntc     =       2, jfastw  =       0
     tol     =   0.00001

Ewald parameters:
     verbose =       0, ew_type =       0, nbflag  =       1, use_pme =       1
     vdwmeth =       1, eedmeth =       1, netfrc  =       1
     Box X =   33.943   Box Y =   33.314   Box Z =   32.993
     Alpha =   90.000   Beta  =   90.000   Gamma =   90.000
     NFFT1 =   36       NFFT2 =   36       NFFT3 =   32
     Cutoff=    8.000   Tol   =0.100E-04
     Ewald Coefficient =  0.34864
     Interpolation order =    4

    LOADING THE CONSTRAINED ATOMS AS GROUPS

   5.  REFERENCE ATOM COORDINATES

  LIG
     Mask !:WAT,HOH,T3P,T4P; matches    11 atoms

--------------------------------------------------------------------------------
   3.  ATOMIC COORDINATES AND VELOCITIES
--------------------------------------------------------------------------------

LIG
 begin time read from input coords =    10.000 ps

 Number of triangulated 3-point waters found:      799

     Sum of charges from parm topology file =   0.00000200
     Forcing neutrality...

--------------------------------------------------------------------------------
   4.  RESULTS
 NSTEP =     1500   TIME(PS) =      13.000  TEMP(K) =   300.06  PRESS =    10.2
 Etot   =     -5937.1304  EKtot   =      1436.7451  EPtot      =     -7373.8755
 BOND   =         0.0936  ANGLE   =         1.3280  DIHED      =         0.1142
 1-4 NB =         0.7470  1-4 EEL =        -0.2519  VDWAALS    =      1186.5415
 EELEC  =     -8563.6387  EHBOND  =         0.0000  RESTRAINT  =         1.1908
 EAMBER (non-restraint)  =     -7375.0663
 EKCMT  =       727.9594  VIRIAL  =       720.7658  VOLUME     =     32807.7500
                                                    Density    =         0.7308
 Ewald error estimate:   0.1855E-03
 ------------------------------------------------------------------------------

      A V E R A G E S   O V E R   15000 S T E P S

 NSTEP =    15000   TIME(PS) =      40.000  TEMP(K) =   299.46  PRESS =  -158.1
 Etot   =     -6112.3827  EKtot   =      1433.8528  EPtot      =     -7546.2355
 BOND   =         0.2070  ANGLE   =         1.2896  DIHED      =         0.0820
 1-4 NB =         0.5250  1-4 EEL =        -0.2102  VDWAALS    =      1126.7666
 EELEC  =     -8676.9683  EHBOND  =         0.0000  RESTRAINT  =         2.0729
 EAMBER (non-restraint)  =     -7548.3084
 EKCMT  =       722.4394  VIRIAL  =       826.2436  VOLUME     =     26523.1183
                                                    Density    =         0.9171
 Ewald error estimate:   0.1961E-03
 ------------------------------------------------------------------------------

      R M S  F L U C T U A T I O N S

 NSTEP =    15000   TIME(PS) =      40.000  TEMP(K) =     5.09  PRESS =   349.7
 Etot   =        95.8293  EKtot   =        24.3879  EPtot      =       104.1206
 BOND   =         0.2065  ANGLE   =         0.3947  DIHED      =         0.0548
 1-4 NB =         0.1518  1-4 EEL =         0.0262  VDWAALS    =        34.2436
 EELEC  =       115.1994  EHBOND  =         0.0000  RESTRAINT  =         0.8829
 EAMBER (non-restraint)  =       103.2377
 EKCMT  =        18.5123  VIRIAL  =       214.1965  VOLUME     =      3488.5954
                                                    Density    =         0.1004
 Ewald error estimate:   0.1475E-03
 ------------------------------------------------------------------------------
