-------------------------------------------------------
          Amber 14 SANDER                              2014
          -------------------------------------------------------

  [-O]verwriting output

File Assignments:

 Here is the input file:

constant temperature
 &cntrl
   imin = 0, nstlim = 1000, irest = 1, ntx = 5, dt = 0.002,
   ntt = 1, temp0 = 300.0, tautp = 1.0,
   ntb = 1,
   ntc = 2, ntf = 2,
   ioutfm = 1, iwrap = 1,
   ntwe = 800, ntwx = 800, ntpr = 400,
    ntr = 1, restraint_wt = 10.00,
 restraintmask="!:CYC,WAT,HOH,T3P,T4P",
 /

--------------------------------------------------------------------------------
   1.  RESOURCE   USE:
--------------------------------------------------------------------------------

 getting new box info from bottom of inpcrd

 NATOM  =    3242 NTYPES =       2 NBONH =    2161 MBONA  =    1080
 NTHETH =    5400 MTHETA =    1080 NPHIH =    8640 MPHIA  =    3240
 NHPARM =       0 NPARM  =       0 NNB   =   19082 NRES   =     181
 NBONA  =    1080 NTHETA =    1080 NPHIA =    3240 NUMBND =       2
 NUMANG =       3 NPTRA  =       5 NATYP =       2 NPHB   =       0
 IFBOX  =       1 NMXRS  =      18 IFCAP =       0 NEXTRA =       0
 NCOPY  =       0

     BOX TYPE: RECTILINEAR

--------------------------------------------------------------------------------
   2.  CONTROL  DATA  FOR  THE  RUN
--------------------------------------------------------------------------------

default_name

General flags:
     imin    =       0, nmropt  =       0

Nature and format of input:
     ntx     =       5, irest   =       1, ntrx    =       1

Nature and format of output:
     ntxo    =       1, ntpr    =     400, ntrx    =       1, ntwr    =     500
     iwrap   =       1, ntwx    =     800, ntwv    =       0, ntwe    =     800
     ioutfm  =       1, ntwprt  =       0, idecomp =       0, rbornstat=      0

Potential function:
     ntf     =       2, ntb     =       1, igb     =       0, nsnb    =      25
     ipol    =       0, gbsa    =       0, iesp    =       0
     dielc   =   1.00000, cut     =   8.00000, intdiel =   1.00000

Frozen or restrained atoms:
     ibelly  =       0, ntr     =       1
     restraint_wt =  10.00000

Molecular dynamics:
     nstlim  =      1000, nscm    =         0, nrespa  =         1
     t       =   0.00000, dt      =   0.00200, vlimit  =  20.00000

Berendsen (weak-coupling) temperature regulation:
     temp0   = 300.00000, tempi   =   0.00000, tautp   =   1.00000

SHAKE:
     ntc     =       2, jfastw  =       0
     tol     =   0.00001

Ewald parameters:
     verbose =       0, ew_type =       0, nbflag  =       1, use_pme =       1
     vdwmeth =       1, eedmeth =       1, netfrc  =       1
     Box X =   34.145   Box Y =   37.482   Box Z =   45.594
     Alpha =   90.000   Beta  =   90.000   Gamma =   90.000
     NFFT1 =   36       NFFT2 =   40       NFFT3 =   45
     Cutoff=    8.000   Tol   =0.100E-04
     Ewald Coefficient =  0.34864
     Interpolation order =    4

    LOADING THE CONSTRAINED ATOMS AS GROUPS

   5.  REFERENCE ATOM COORDINATES

  defa
     Mask !:CYC,WAT,HOH,T3P,T4P; matches     2 atoms

--------------------------------------------------------------------------------
   3.  ATOMIC COORDINATES AND VELOCITIES
--------------------------------------------------------------------------------

default_name
 begin time read from input coords =     4.000 ps

 Number of triangulated 3-point waters found:        0

     Sum of charges from parm topology file =   0.00000012
     Forcing neutrality...

--------------------------------------------------------------------------------
   4.  RESULTS
 NSTEP =      400   TIME(PS) =       4.800  TEMP(K) =   159.69  PRESS =     0.0
 Etot   =      1801.0019  EKtot   =      1200.3465  EPtot      =       600.6554
 BOND   =        53.7089  ANGLE   =       189.8316  DIHED      =       564.5909
 1-4 NB =       497.4191  1-4 EEL =      -151.1719  VDWAALS    =      -807.3310
 EELEC  =       253.5877  EHBOND  =         0.0000  RESTRAINT  =         0.0201
 EAMBER (non-restraint)  =       600.6353
 Ewald error estimate:   0.1630E-03
 ------------------------------------------------------------------------------

      A V E R A G E S   O V E R    1000 S T E P S

 NSTEP =     1000   TIME(PS) =       6.000  TEMP(K) =   163.89  PRESS =     0.0
 Etot   =      1905.9313  EKtot   =      1231.9157  EPtot      =       674.0156
 BOND   =        60.7825  ANGLE   =       226.3790  DIHED      =       573.4630
 1-4 NB =       496.0066  1-4 EEL =      -149.8036  VDWAALS    =      -785.8750
 EELEC  =       252.8950  EHBOND  =         0.0000  RESTRAINT  =         0.1682
 EAMBER (non-restraint)  =       673.8474
 Ewald error estimate:   0.2013E-03
 ------------------------------------------------------------------------------

      R M S  F L U C T U A T I O N S

 NSTEP =     1000   TIME(PS) =       6.000  TEMP(K) =    49.36  PRESS =     0.0
 Etot   =       583.2793  EKtot   =       371.0409  EPtot      =       213.8435
 BOND   =        19.7438  ANGLE   =        85.7379  DIHED      =        28.1022
 1-4 NB =        12.7655  1-4 EEL =         1.0737  VDWAALS    =        71.6410
 EELEC  =         0.5790  EHBOND  =         0.0000  RESTRAINT  =         0.1188
 EAMBER (non-restraint)  =       213.7248
 Ewald error estimate:   0.1007E-03
 ------------------------------------------------------------------------------
