-------------------------------------------------------
          Amber 14 SANDER                              2014
          -------------------------------------------------------

  [-O]verwriting output

File Assignments:

 Here is the input file:

constant temperature
 &cntrl
   imin = 0, nstlim = 4000, irest = 1, ntx = 5, dt = 0.002,
   ntt = 1, temp0 = 300.0, tautp = 1.0,
   ntb = 1,
   ntc = 2, ntf = 2,
   ioutfm = 1, iwrap = 1,
   ntwe = 800, ntwx = 800, ntpr = 400,
    ntr = 1, restraint_wt = 10.00,
 restraintmask="!:WAT,HOH,T3P,T4P",
 /

--------------------------------------------------------------------------------
   1.  RESOURCE   USE:
--------------------------------------------------------------------------------

 getting new box info from bottom of inpcrd

 NATOM  =    2507 NTYPES =       4 NBONH =    2503 MBONA  =       3
 NTHETH =      21 MTHETA =       3 NPHIH =      27 MPHIA  =       0
 NHPARM =       0 NPARM  =       0 NNB   =    3390 NRES   =     832
 NBONA  =       3 NTHETA =       3 NPHIA =       0 NUMBND =       4
 NUMANG =       3 NPTRA  =       2 NATYP =       4 NPHB   =       1
 IFBOX  =       1 NMXRS  =      14 IFCAP =       0 NEXTRA =       0
 NCOPY  =       0

     BOX TYPE: RECTILINEAR

--------------------------------------------------------------------------------
   2.  CONTROL  DATA  FOR  THE  RUN
--------------------------------------------------------------------------------

LIG

General flags:
     imin    =       0, nmropt  =       0

Nature and format of input:
     ntx     =       5, irest   =       1, ntrx    =       1

Nature and format of output:
     ntxo    =       1, ntpr    =     400, ntrx    =       1, ntwr    =     500
     iwrap   =       1, ntwx    =     800, ntwv    =       0, ntwe    =     800
     ioutfm  =       1, ntwprt  =       0, idecomp =       0, rbornstat=      0

Potential function:
     ntf     =       2, ntb     =       1, igb     =       0, nsnb    =      25
     ipol    =       0, gbsa    =       0, iesp    =       0
     dielc   =   1.00000, cut     =   8.00000, intdiel =   1.00000

Frozen or restrained atoms:
     ibelly  =       0, ntr     =       1
     restraint_wt =  10.00000

Molecular dynamics:
     nstlim  =      4000, nscm    =         0, nrespa  =         1
     t       =   0.00000, dt      =   0.00200, vlimit  =  20.00000

Berendsen (weak-coupling) temperature regulation:
     temp0   = 300.00000, tempi   =   0.00000, tautp   =   1.00000

SHAKE:
     ntc     =       2, jfastw  =       0
     tol     =   0.00001

Ewald parameters:
     verbose =       0, ew_type =       0, nbflag  =       1, use_pme =       1
     vdwmeth =       1, eedmeth =       1, netfrc  =       1
     Box X =   33.943   Box Y =   33.314   Box Z =   34.229
     Alpha =   90.000   Beta  =   90.000   Gamma =   90.000
     NFFT1 =   36       NFFT2 =   36       NFFT3 =   36
     Cutoff=    8.000   Tol   =0.100E-04
     Ewald Coefficient =  0.34864
     Interpolation order =    4

    LOADING THE CONSTRAINED ATOMS AS GROUPS

   5.  REFERENCE ATOM COORDINATES

  LIG
     Mask !:WAT,HOH,T3P,T4P; matches    14 atoms

--------------------------------------------------------------------------------
   3.  ATOMIC COORDINATES AND VELOCITIES
--------------------------------------------------------------------------------

LIG
 begin time read from input coords =     2.000 ps

 Number of triangulated 3-point waters found:      831

     Sum of charges from parm topology file =  -0.00000100
     Forcing neutrality...

--------------------------------------------------------------------------------
   4.  RESULTS
 NSTEP =      400   TIME(PS) =       2.800  TEMP(K) =   204.13  PRESS =     0.0
 Etot   =     -7377.1369  EKtot   =      1017.7834  EPtot      =     -8394.9203
 BOND   =         0.0664  ANGLE   =         1.2228  DIHED      =         0.0234
 1-4 NB =         1.2211  1-4 EEL =        -3.5528  VDWAALS    =      1432.7124
 EELEC  =     -9827.7867  EHBOND  =         0.0000  RESTRAINT  =         1.1730
 EAMBER (non-restraint)  =     -8396.0933
 Ewald error estimate:   0.7910E-04
 ------------------------------------------------------------------------------

      A V E R A G E S   O V E R    4000 S T E P S

 NSTEP =     4000   TIME(PS) =      10.000  TEMP(K) =   258.83  PRESS =     0.0
 Etot   =     -6665.5010  EKtot   =      1290.5091  EPtot      =     -7956.0101
 BOND   =         0.1638  ANGLE   =         1.3194  DIHED      =         0.0715
 1-4 NB =         1.1661  1-4 EEL =        -3.5343  VDWAALS    =      1312.0321
 EELEC  =     -9268.7978  EHBOND  =         0.0000  RESTRAINT  =         1.5691
 EAMBER (non-restraint)  =     -7957.5793
 Ewald error estimate:   0.1543E-03
 ------------------------------------------------------------------------------

      R M S  F L U C T U A T I O N S

 NSTEP =     4000   TIME(PS) =      10.000  TEMP(K) =    33.29  PRESS =     0.0
 Etot   =       437.1911  EKtot   =       165.9619  EPtot      =       273.9926
 BOND   =         0.1167  ANGLE   =         0.3855  DIHED      =         0.0482
 1-4 NB =         0.1673  1-4 EEL =         0.0344  VDWAALS    =       119.6020
 EELEC  =       387.3094  EHBOND  =         0.0000  RESTRAINT  =         0.7538
 EAMBER (non-restraint)  =       273.2388
 Ewald error estimate:   0.1240E-03
 ------------------------------------------------------------------------------
